
     RDKit          3D

 43 45  0  0  0  0  0  0  0  0999 V2000
    5.1097   -1.7237    0.5661 C   0  0  0  0  0  0  0  0  0  0  0  0
    5.3705   -0.7214   -0.5494 C   0  0  0  0  0  0  0  0  0  0  0  0
    4.7723    0.6494   -0.2494 C   0  0  0  0  0  0  0  0  0  0  0  0
    3.3473    0.5280   -0.1652 O   0  0  0  0  0  0  0  0  0  0  0  0
    2.6977    1.6961    0.1117 C   0  0  0  0  0  0  0  0  0  0  0  0
    3.2555    2.7746    0.2726 O   0  0  0  0  0  0  0  0  0  0  0  0
    1.2610    1.5108    0.1948 C   0  0  0  0  0  0  0  0  0  0  0  0
    0.4966    0.3146    0.0340 C   0  0  0  0  0  0  0  0  0  0  0  0
   -0.8319    0.6432    0.2050 C   0  0  0  0  0  0  0  0  0  0  0  0
   -2.0660   -0.3045    0.1268 C   0  0  0  0  0  0  0  0  0  0  0  0
   -3.3680    0.1246    0.3145 C   0  0  0  0  0  0  0  0  0  0  0  0
   -3.9996    1.4349    0.6185 C   0  0  0  0  0  0  0  0  0  0  0  0
   -4.2162    2.2580   -0.6409 C   0  0  0  0  0  0  0  0  0  0  0  0
   -4.2298   -0.9231    0.1800 O   0  0  0  0  0  0  0  0  0  0  0  0
   -3.4837   -2.0255   -0.0910 C   0  0  0  0  0  0  0  0  0  0  0  0
   -4.0016   -3.3035   -0.2961 C   0  0  0  0  0  0  0  0  0  0  0  0
   -3.0813   -4.3190   -0.5644 C   0  0  0  0  0  0  0  0  0  0  0  0
   -1.7140   -4.0489   -0.6208 C   0  0  0  0  0  0  0  0  0  0  0  0
   -1.2232   -2.7506   -0.4099 C   0  0  0  0  0  0  0  0  0  0  0  0
   -2.1294   -1.7053   -0.1366 C   0  0  0  0  0  0  0  0  0  0  0  0
   -0.9232    1.9825    0.4631 O   0  0  0  0  0  0  0  0  0  0  0  0
    0.3336    2.5014    0.4563 C   0  0  0  0  0  0  0  0  0  0  0  0
    0.4399    3.9532    0.7185 C   0  0  0  0  0  0  0  0  0  0  0  0
    4.0377   -1.8970    0.7040 H   0  0  0  0  0  0  0  0  0  0  0  0
    5.5774   -2.6840    0.3271 H   0  0  0  0  0  0  0  0  0  0  0  0
    5.5260   -1.3703    1.5149 H   0  0  0  0  0  0  0  0  0  0  0  0
    4.9386   -1.1150   -1.4769 H   0  0  0  0  0  0  0  0  0  0  0  0
    6.4509   -0.6211   -0.7000 H   0  0  0  0  0  0  0  0  0  0  0  0
    5.0290    1.3406   -1.0605 H   0  0  0  0  0  0  0  0  0  0  0  0
    5.1693    1.0358    0.6967 H   0  0  0  0  0  0  0  0  0  0  0  0
    0.8975   -0.6632   -0.1819 H   0  0  0  0  0  0  0  0  0  0  0  0
   -3.3839    1.9964    1.3292 H   0  0  0  0  0  0  0  0  0  0  0  0
   -4.9661    1.2724    1.1108 H   0  0  0  0  0  0  0  0  0  0  0  0
   -4.6908    3.2126   -0.3928 H   0  0  0  0  0  0  0  0  0  0  0  0
   -3.2691    2.4720   -1.1474 H   0  0  0  0  0  0  0  0  0  0  0  0
   -4.8633    1.7311   -1.3507 H   0  0  0  0  0  0  0  0  0  0  0  0
   -5.0674   -3.4909   -0.2478 H   0  0  0  0  0  0  0  0  0  0  0  0
   -3.4378   -5.3331   -0.7314 H   0  0  0  0  0  0  0  0  0  0  0  0
   -1.0157   -4.8564   -0.8316 H   0  0  0  0  0  0  0  0  0  0  0  0
   -0.1548   -2.5769   -0.4613 H   0  0  0  0  0  0  0  0  0  0  0  0
    1.0439    4.1376    1.6121 H   0  0  0  0  0  0  0  0  0  0  0  0
   -0.5458    4.4015    0.8787 H   0  0  0  0  0  0  0  0  0  0  0  0
    0.9082    4.4621   -0.1295 H   0  0  0  0  0  0  0  0  0  0  0  0
  1  2  1  0
  2  3  1  0
  3  4  1  0
  4  5  1  0
  5  6  2  0
  5  7  1  0
  7  8  1  0
  8  9  2  0
  9 10  1  0
 10 11  2  0
 11 12  1  0
 12 13  1  0
 11 14  1  0
 14 15  1  0
 15 16  2  0
 16 17  1  0
 17 18  2  0
 18 19  1  0
 19 20  2  0
  9 21  1  0
 21 22  1  0
 22 23  1  0
 22  7  2  0
 20 10  1  0
 20 15  1  0
  1 24  1  0
  1 25  1  0
  1 26  1  0
  2 27  1  0
  2 28  1  0
  3 29  1  0
  3 30  1  0
  8 31  1  0
 12 32  1  0
 12 33  1  0
 13 34  1  0
 13 35  1  0
 13 36  1  0
 16 37  1  0
 17 38  1  0
 18 39  1  0
 19 40  1  0
 23 41  1  0
 23 42  1  0
 23 43  1  0
M  END
$$$$
