
     RDKit          3D

 34 36  0  0  0  0  0  0  0  0999 V2000
   -1.8431   -2.9527   -0.5666 C   0  0  0  0  0  0  0  0  0  0  0  0
   -1.7300   -1.7916   -1.5412 C   0  0  0  0  0  0  0  0  0  0  0  0
   -1.7455   -0.4827   -0.8378 C   0  0  0  0  0  0  0  0  0  0  0  0
   -2.9616    0.1297   -0.7684 O   0  0  0  0  0  0  0  0  0  0  0  0
   -2.7852    1.2996   -0.1008 C   0  0  0  0  0  0  0  0  0  0  0  0
   -3.7985    2.2165    0.1751 C   0  0  0  0  0  0  0  0  0  0  0  0
   -3.4307    3.3681    0.8743 C   0  0  0  0  0  0  0  0  0  0  0  0
   -2.1089    3.5737    1.2695 C   0  0  0  0  0  0  0  0  0  0  0  0
   -1.1108    2.6310    0.9767 C   0  0  0  0  0  0  0  0  0  0  0  0
   -1.4530    1.4589    0.2714 C   0  0  0  0  0  0  0  0  0  0  0  0
   -0.7865    0.2935   -0.2114 C   0  0  0  0  0  0  0  0  0  0  0  0
    0.7123   -0.1180   -0.1033 C   0  0  0  0  0  0  0  0  0  0  0  0
    1.7385    0.5816    0.4964 C   0  0  0  0  0  0  0  0  0  0  0  0
    2.9302   -0.1905    0.3479 C   0  0  0  0  0  0  0  0  0  0  0  0
    4.2677    0.1065    0.8019 C   0  0  0  0  0  0  0  0  0  0  0  0
    5.2534   -0.5984    0.6437 O   0  0  0  0  0  0  0  0  0  0  0  0
    4.3767    1.2851    1.4547 O   0  0  0  0  0  0  0  0  0  0  0  0
    2.5459   -1.3243   -0.3414 C   0  0  0  0  0  0  0  0  0  0  0  0
    3.2721   -2.5211   -0.8182 C   0  0  0  0  0  0  0  0  0  0  0  0
    1.2144   -1.2828   -0.6139 O   0  0  0  0  0  0  0  0  0  0  0  0
   -1.8394   -3.9038   -1.1083 H   0  0  0  0  0  0  0  0  0  0  0  0
   -2.7719   -2.8942    0.0112 H   0  0  0  0  0  0  0  0  0  0  0  0
   -1.0085   -2.9633    0.1423 H   0  0  0  0  0  0  0  0  0  0  0  0
   -2.5643   -1.8377   -2.2516 H   0  0  0  0  0  0  0  0  0  0  0  0
   -0.8154   -1.8916   -2.1352 H   0  0  0  0  0  0  0  0  0  0  0  0
   -4.8188    2.0366   -0.1411 H   0  0  0  0  0  0  0  0  0  0  0  0
   -4.1868    4.1130    1.1129 H   0  0  0  0  0  0  0  0  0  0  0  0
   -1.8459    4.4787    1.8136 H   0  0  0  0  0  0  0  0  0  0  0  0
   -0.0940    2.8229    1.2991 H   0  0  0  0  0  0  0  0  0  0  0  0
    1.6691    1.5375    0.9913 H   0  0  0  0  0  0  0  0  0  0  0  0
    5.3276    1.3233    1.6852 H   0  0  0  0  0  0  0  0  0  0  0  0
    3.7271   -3.0531    0.0229 H   0  0  0  0  0  0  0  0  0  0  0  0
    4.0634   -2.2351   -1.5178 H   0  0  0  0  0  0  0  0  0  0  0  0
    2.6003   -3.2152   -1.3332 H   0  0  0  0  0  0  0  0  0  0  0  0
  1  2  1  0
  2  3  1  0
  3  4  1  0
  4  5  1  0
  5  6  2  0
  6  7  1  0
  7  8  2  0
  8  9  1  0
  9 10  2  0
 10 11  1  0
 11 12  1  0
 12 13  2  0
 13 14  1  0
 14 15  1  0
 15 16  2  0
 15 17  1  0
 14 18  2  0
 18 19  1  0
 18 20  1  0
 11  3  2  0
 20 12  1  0
 10  5  1  0
  1 21  1  0
  1 22  1  0
  1 23  1  0
  2 24  1  0
  2 25  1  0
  6 26  1  0
  7 27  1  0
  8 28  1  0
  9 29  1  0
 13 30  1  0
 17 31  1  0
 19 32  1  0
 19 33  1  0
 19 34  1  0
M  END
$$$$
