
     RDKit          3D

 52 55  0  0  0  0  0  0  0  0999 V2000
    1.3125   -3.7420    0.4057 C   0  0  0  0  0  0  0  0  0  0  0  0
    1.4636   -2.3737   -0.0155 N   0  0  0  0  0  0  0  0  0  0  0  0
    1.0800   -1.3266    0.7940 C   0  0  0  0  0  0  0  0  0  0  0  0
    0.4979   -1.4862    1.8612 O   0  0  0  0  0  0  0  0  0  0  0  0
    1.3984   -0.0090    0.2755 C   0  0  0  0  0  0  0  0  0  0  0  0
    2.6331    0.3827   -0.2262 C   0  0  0  0  0  0  0  0  0  0  0  0
    3.9386   -0.2494   -0.3896 C   0  0  0  0  0  0  0  0  0  0  0  0
    4.7087    0.0007   -1.5365 C   0  0  0  0  0  0  0  0  0  0  0  0
    5.9534   -0.6112   -1.7122 C   0  0  0  0  0  0  0  0  0  0  0  0
    6.4324   -1.4748   -0.7343 C   0  0  0  0  0  0  0  0  0  0  0  0
    7.6387   -2.0954   -0.8623 O   0  0  0  0  0  0  0  0  0  0  0  0
    5.6923   -1.7296    0.4131 C   0  0  0  0  0  0  0  0  0  0  0  0
    4.4499   -1.1148    0.5880 C   0  0  0  0  0  0  0  0  0  0  0  0
    2.5854    1.6852   -0.6178 O   0  0  0  0  0  0  0  0  0  0  0  0
    1.3462    2.1558   -0.3341 C   0  0  0  0  0  0  0  0  0  0  0  0
    0.9482    3.4709   -0.5520 C   0  0  0  0  0  0  0  0  0  0  0  0
   -0.3541    3.7902   -0.1868 C   0  0  0  0  0  0  0  0  0  0  0  0
   -1.2011    2.8158    0.3366 C   0  0  0  0  0  0  0  0  0  0  0  0
   -2.4665    3.2480    0.6466 O   0  0  0  0  0  0  0  0  0  0  0  0
   -0.8107    1.4640    0.5301 C   0  0  0  0  0  0  0  0  0  0  0  0
   -1.7667    0.4429    1.1262 C   0  0  0  0  0  0  0  0  0  0  0  0
   -3.1915    0.6747    0.7862 N   0  0  0  0  0  0  0  0  0  0  0  0
   -3.4919    0.2746   -0.5969 C   0  0  0  0  0  0  0  0  0  0  0  0
   -4.8911    0.7681   -0.9843 C   0  0  0  0  0  0  0  0  0  0  0  0
   -5.8956    0.6964    0.1685 C   0  0  0  0  0  0  0  0  0  0  0  0
   -5.4685   -0.3392    1.1983 C   0  0  0  0  0  0  0  0  0  0  0  0
   -4.0578   -0.0559    1.7355 C   0  0  0  0  0  0  0  0  0  0  0  0
    0.5440    1.1533    0.2052 C   0  0  0  0  0  0  0  0  0  0  0  0
    2.1280   -3.9875    1.0911 H   0  0  0  0  0  0  0  0  0  0  0  0
    0.3548   -3.8814    0.9141 H   0  0  0  0  0  0  0  0  0  0  0  0
    1.3641   -4.3852   -0.4756 H   0  0  0  0  0  0  0  0  0  0  0  0
    2.0157   -2.1813   -0.8415 H   0  0  0  0  0  0  0  0  0  0  0  0
    4.3394    0.6787   -2.3041 H   0  0  0  0  0  0  0  0  0  0  0  0
    6.5266   -0.3999   -2.6094 H   0  0  0  0  0  0  0  0  0  0  0  0
    8.0640   -1.7860   -1.6790 H   0  0  0  0  0  0  0  0  0  0  0  0
    6.0841   -2.3973    1.1756 H   0  0  0  0  0  0  0  0  0  0  0  0
    3.8971   -1.3105    1.5045 H   0  0  0  0  0  0  0  0  0  0  0  0
    1.6261    4.2066   -0.9665 H   0  0  0  0  0  0  0  0  0  0  0  0
   -0.7198    4.8059   -0.3157 H   0  0  0  0  0  0  0  0  0  0  0  0
   -3.0021    2.4414    0.8208 H   0  0  0  0  0  0  0  0  0  0  0  0
   -1.6329    0.5056    2.2140 H   0  0  0  0  0  0  0  0  0  0  0  0
   -1.4970   -0.5681    0.8088 H   0  0  0  0  0  0  0  0  0  0  0  0
   -2.7759    0.7070   -1.3056 H   0  0  0  0  0  0  0  0  0  0  0  0
   -3.4271   -0.8158   -0.7104 H   0  0  0  0  0  0  0  0  0  0  0  0
   -5.2534    0.1662   -1.8264 H   0  0  0  0  0  0  0  0  0  0  0  0
   -4.8395    1.8043   -1.3410 H   0  0  0  0  0  0  0  0  0  0  0  0
   -5.9627    1.6789    0.6528 H   0  0  0  0  0  0  0  0  0  0  0  0
   -6.8951    0.4684   -0.2179 H   0  0  0  0  0  0  0  0  0  0  0  0
   -5.4874   -1.3326    0.7317 H   0  0  0  0  0  0  0  0  0  0  0  0
   -6.1832   -0.3649    2.0285 H   0  0  0  0  0  0  0  0  0  0  0  0
   -3.6129   -1.0163    2.0277 H   0  0  0  0  0  0  0  0  0  0  0  0
   -4.1388    0.5483    2.6472 H   0  0  0  0  0  0  0  0  0  0  0  0
  1  2  1  0
  2  3  1  0
  3  4  2  0
  3  5  1  0
  5  6  2  0
  6  7  1  0
  7  8  1  0
  8  9  2  0
  9 10  1  0
 10 11  1  0
 10 12  2  0
 12 13  1  0
  6 14  1  0
 14 15  1  0
 15 16  2  0
 16 17  1  0
 17 18  2  0
 18 19  1  0
 18 20  1  0
 20 21  1  0
 21 22  1  0
 22 23  1  0
 23 24  1  0
 24 25  1  0
 25 26  1  0
 26 27  1  0
 20 28  2  0
 28  5  1  0
 13  7  2  0
 28 15  1  0
 27 22  1  0
  1 29  1  0
  1 30  1  0
  1 31  1  0
  2 32  1  0
  8 33  1  0
  9 34  1  0
 11 35  1  0
 12 36  1  0
 13 37  1  0
 16 38  1  0
 17 39  1  0
 19 40  1  0
 21 41  1  0
 21 42  1  0
 23 43  1  0
 23 44  1  0
 24 45  1  0
 24 46  1  0
 25 47  1  0
 25 48  1  0
 26 49  1  0
 26 50  1  0
 27 51  1  0
 27 52  1  0
M  END
$$$$
