
     RDKit          3D

 48 50  0  0  0  0  0  0  0  0999 V2000
   -3.0139   -2.8045   -0.9386 C   0  0  0  0  0  0  0  0  0  0  0  0
   -3.1223   -2.1350    0.4218 C   0  0  0  0  0  0  0  0  0  0  0  0
   -3.6301   -0.7441    0.3098 C   0  0  0  0  0  0  0  0  0  0  0  0
   -4.9770   -0.6165    0.5071 O   0  0  0  0  0  0  0  0  0  0  0  0
   -5.2861    0.7002    0.3796 C   0  0  0  0  0  0  0  0  0  0  0  0
   -6.5630    1.2423    0.5113 C   0  0  0  0  0  0  0  0  0  0  0  0
   -6.6759    2.6258    0.3433 C   0  0  0  0  0  0  0  0  0  0  0  0
   -5.5561    3.4100    0.0580 C   0  0  0  0  0  0  0  0  0  0  0  0
   -4.2841    2.8326   -0.0684 C   0  0  0  0  0  0  0  0  0  0  0  0
   -4.1456    1.4402    0.0973 C   0  0  0  0  0  0  0  0  0  0  0  0
   -3.0760    0.4969    0.0507 C   0  0  0  0  0  0  0  0  0  0  0  0
   -1.5840    0.8403   -0.2418 C   0  0  0  0  0  0  0  0  0  0  0  0
   -0.5075   -0.0195   -0.3149 C   0  0  0  0  0  0  0  0  0  0  0  0
    0.6514    0.7629   -0.6083 C   0  0  0  0  0  0  0  0  0  0  0  0
    2.0255    0.3322   -0.7854 C   0  0  0  0  0  0  0  0  0  0  0  0
    2.9501    1.0957   -1.0342 O   0  0  0  0  0  0  0  0  0  0  0  0
    2.1610   -1.0170   -0.6331 O   0  0  0  0  0  0  0  0  0  0  0  0
    3.4951   -1.5300   -0.8046 C   0  0  0  0  0  0  0  0  0  0  0  0
    4.3157   -1.3479    0.4829 C   0  0  0  0  0  0  0  0  0  0  0  0
    5.6235   -2.0285    0.4567 N   0  0  0  0  0  0  0  0  0  0  0  0
    6.5446   -1.3903   -0.4882 C   0  0  0  0  0  0  0  0  0  0  0  0
    6.2158   -2.0218    1.7978 C   0  0  0  0  0  0  0  0  0  0  0  0
    0.1969    2.0649   -0.6964 C   0  0  0  0  0  0  0  0  0  0  0  0
    0.8589    3.3587   -0.9719 C   0  0  0  0  0  0  0  0  0  0  0  0
   -1.1441    2.1136   -0.4774 O   0  0  0  0  0  0  0  0  0  0  0  0
   -2.6410   -3.8277   -0.8287 H   0  0  0  0  0  0  0  0  0  0  0  0
   -3.9900   -2.8506   -1.4340 H   0  0  0  0  0  0  0  0  0  0  0  0
   -2.3300   -2.2634   -1.6005 H   0  0  0  0  0  0  0  0  0  0  0  0
   -3.8001   -2.7234    1.0526 H   0  0  0  0  0  0  0  0  0  0  0  0
   -2.1534   -2.1479    0.9299 H   0  0  0  0  0  0  0  0  0  0  0  0
   -7.4194    0.6174    0.7326 H   0  0  0  0  0  0  0  0  0  0  0  0
   -7.6520    3.0970    0.4363 H   0  0  0  0  0  0  0  0  0  0  0  0
   -5.6691    4.4846   -0.0688 H   0  0  0  0  0  0  0  0  0  0  0  0
   -3.4213    3.4536   -0.2912 H   0  0  0  0  0  0  0  0  0  0  0  0
   -0.5241   -1.0901   -0.1815 H   0  0  0  0  0  0  0  0  0  0  0  0
    3.9683   -1.0631   -1.6757 H   0  0  0  0  0  0  0  0  0  0  0  0
    3.3903   -2.5972   -1.0304 H   0  0  0  0  0  0  0  0  0  0  0  0
    3.7108   -1.7577    1.3033 H   0  0  0  0  0  0  0  0  0  0  0  0
    4.4326   -0.2807    0.7114 H   0  0  0  0  0  0  0  0  0  0  0  0
    7.5186   -1.8930   -0.4730 H   0  0  0  0  0  0  0  0  0  0  0  0
    6.1781   -1.4743   -1.5159 H   0  0  0  0  0  0  0  0  0  0  0  0
    6.7028   -0.3301   -0.2600 H   0  0  0  0  0  0  0  0  0  0  0  0
    7.1712   -2.5586    1.7999 H   0  0  0  0  0  0  0  0  0  0  0  0
    5.5653   -2.5430    2.5090 H   0  0  0  0  0  0  0  0  0  0  0  0
    6.3895   -1.0050    2.1686 H   0  0  0  0  0  0  0  0  0  0  0  0
    1.3335    3.3436   -1.9578 H   0  0  0  0  0  0  0  0  0  0  0  0
    0.1405    4.1845   -0.9557 H   0  0  0  0  0  0  0  0  0  0  0  0
    1.6261    3.5640   -0.2192 H   0  0  0  0  0  0  0  0  0  0  0  0
  1  2  1  0
  2  3  1  0
  3  4  1  0
  4  5  1  0
  5  6  2  0
  6  7  1  0
  7  8  2  0
  8  9  1  0
  9 10  2  0
 10 11  1  0
 11 12  1  0
 12 13  2  0
 13 14  1  0
 14 15  1  0
 15 16  2  0
 15 17  1  0
 17 18  1  0
 18 19  1  0
 19 20  1  0
 20 21  1  0
 20 22  1  0
 14 23  2  0
 23 24  1  0
 23 25  1  0
 11  3  2  0
 25 12  1  0
 10  5  1  0
  1 26  1  0
  1 27  1  0
  1 28  1  0
  2 29  1  0
  2 30  1  0
  6 31  1  0
  7 32  1  0
  8 33  1  0
  9 34  1  0
 13 35  1  0
 18 36  1  0
 18 37  1  0
 19 38  1  0
 19 39  1  0
 21 40  1  0
 21 41  1  0
 21 42  1  0
 22 43  1  0
 22 44  1  0
 22 45  1  0
 24 46  1  0
 24 47  1  0
 24 48  1  0
M  END
$$$$
