
     RDKit          3D

 31 33  0  0  0  0  0  0  0  0999 V2000
   -5.5626    0.6145   -0.9313 C   0  0  0  0  0  0  0  0  0  0  0  0
   -4.1510    0.6325   -0.7188 O   0  0  0  0  0  0  0  0  0  0  0  0
   -3.6405   -0.5547   -0.2779 C   0  0  0  0  0  0  0  0  0  0  0  0
   -4.3099   -1.5603   -0.0746 O   0  0  0  0  0  0  0  0  0  0  0  0
   -2.2047   -0.4886   -0.0764 C   0  0  0  0  0  0  0  0  0  0  0  0
   -1.3168    0.6118   -0.2750 C   0  0  0  0  0  0  0  0  0  0  0  0
   -0.0482    0.1797    0.0527 C   0  0  0  0  0  0  0  0  0  0  0  0
    1.2566    1.0139   -0.0003 C   0  0  0  0  0  0  0  0  0  0  0  0
    1.3512    2.3306   -0.3873 C   0  0  0  0  0  0  0  0  0  0  0  0
    2.6409    2.7559   -0.3179 O   0  0  0  0  0  0  0  0  0  0  0  0
    3.3824    1.6993    0.1189 C   0  0  0  0  0  0  0  0  0  0  0  0
    4.7599    1.7133    0.3273 C   0  0  0  0  0  0  0  0  0  0  0  0
    5.3362    0.5218    0.7796 C   0  0  0  0  0  0  0  0  0  0  0  0
    4.5578   -0.6160    1.0065 C   0  0  0  0  0  0  0  0  0  0  0  0
    3.1727   -0.5991    0.7875 C   0  0  0  0  0  0  0  0  0  0  0  0
    2.5707    0.5894    0.3321 C   0  0  0  0  0  0  0  0  0  0  0  0
   -0.1056   -1.1265    0.4422 O   0  0  0  0  0  0  0  0  0  0  0  0
   -1.4039   -1.5272    0.3640 C   0  0  0  0  0  0  0  0  0  0  0  0
   -1.6763   -2.9293    0.7496 C   0  0  0  0  0  0  0  0  0  0  0  0
   -5.8650    1.6057   -1.2803 H   0  0  0  0  0  0  0  0  0  0  0  0
   -5.8257   -0.1181   -1.7007 H   0  0  0  0  0  0  0  0  0  0  0  0
   -6.0890    0.4020    0.0045 H   0  0  0  0  0  0  0  0  0  0  0  0
   -1.5863    1.6010   -0.6183 H   0  0  0  0  0  0  0  0  0  0  0  0
    0.6397    3.0711   -0.7230 H   0  0  0  0  0  0  0  0  0  0  0  0
    5.3479    2.6046    0.1462 H   0  0  0  0  0  0  0  0  0  0  0  0
    6.4088    0.4820    0.9574 H   0  0  0  0  0  0  0  0  0  0  0  0
    5.0309   -1.5304    1.3584 H   0  0  0  0  0  0  0  0  0  0  0  0
    2.5762   -1.4891    0.9669 H   0  0  0  0  0  0  0  0  0  0  0  0
   -2.1142   -3.4788   -0.0893 H   0  0  0  0  0  0  0  0  0  0  0  0
   -0.7583   -3.4450    1.0486 H   0  0  0  0  0  0  0  0  0  0  0  0
   -2.3737   -2.9660    1.5920 H   0  0  0  0  0  0  0  0  0  0  0  0
  1  2  1  0
  2  3  1  0
  3  4  2  0
  3  5  1  0
  5  6  1  0
  6  7  2  0
  7  8  1  0
  8  9  2  0
  9 10  1  0
 10 11  1  0
 11 12  2  0
 12 13  1  0
 13 14  2  0
 14 15  1  0
 15 16  2  0
  7 17  1  0
 17 18  1  0
 18 19  1  0
 18  5  2  0
 16  8  1  0
 16 11  1  0
  1 20  1  0
  1 21  1  0
  1 22  1  0
  6 23  1  0
  9 24  1  0
 12 25  1  0
 13 26  1  0
 14 27  1  0
 15 28  1  0
 19 29  1  0
 19 30  1  0
 19 31  1  0
M  END
$$$$
