
     RDKit          3D

 28 30  0  0  0  0  0  0  0  0999 V2000
   -3.0815   -0.6930    1.9609 C   0  0  0  0  0  0  0  0  0  0  0  0
   -2.3974   -0.2667    0.7207 C   0  0  0  0  0  0  0  0  0  0  0  0
   -1.0367   -0.2658    0.7562 O   0  0  0  0  0  0  0  0  0  0  0  0
   -0.5886    0.1513   -0.4634 C   0  0  0  0  0  0  0  0  0  0  0  0
    0.9086    0.2921   -0.8374 C   0  0  0  0  0  0  0  0  0  0  0  0
    1.3947    0.7089   -2.0549 C   0  0  0  0  0  0  0  0  0  0  0  0
    2.7545    0.7189   -2.0465 O   0  0  0  0  0  0  0  0  0  0  0  0
    3.1450    0.3036   -0.8089 C   0  0  0  0  0  0  0  0  0  0  0  0
    4.4650    0.1718   -0.3828 C   0  0  0  0  0  0  0  0  0  0  0  0
    4.6572   -0.2708    0.9300 C   0  0  0  0  0  0  0  0  0  0  0  0
    3.5717   -0.5620    1.7600 C   0  0  0  0  0  0  0  0  0  0  0  0
    2.2538   -0.4195    1.3021 C   0  0  0  0  0  0  0  0  0  0  0  0
    2.0361    0.0247   -0.0160 C   0  0  0  0  0  0  0  0  0  0  0  0
   -1.6700    0.4168   -1.2779 C   0  0  0  0  0  0  0  0  0  0  0  0
   -2.8479    0.1487   -0.5189 C   0  0  0  0  0  0  0  0  0  0  0  0
   -4.2309    0.2696   -0.9146 C   0  0  0  0  0  0  0  0  0  0  0  0
   -5.2024    0.0237   -0.2154 O   0  0  0  0  0  0  0  0  0  0  0  0
   -4.4023    0.6981   -2.1850 O   0  0  0  0  0  0  0  0  0  0  0  0
   -2.3616   -0.9513    2.7439 H   0  0  0  0  0  0  0  0  0  0  0  0
   -3.7043   -1.5725    1.7712 H   0  0  0  0  0  0  0  0  0  0  0  0
   -3.7203    0.1101    2.3409 H   0  0  0  0  0  0  0  0  0  0  0  0
    0.9374    1.0189   -2.9835 H   0  0  0  0  0  0  0  0  0  0  0  0
    5.2945    0.4021   -1.0398 H   0  0  0  0  0  0  0  0  0  0  0  0
    5.6698   -0.3898    1.3098 H   0  0  0  0  0  0  0  0  0  0  0  0
    3.7486   -0.9048    2.7773 H   0  0  0  0  0  0  0  0  0  0  0  0
    1.4164   -0.6485    1.9552 H   0  0  0  0  0  0  0  0  0  0  0  0
   -1.6328    0.7637   -2.3013 H   0  0  0  0  0  0  0  0  0  0  0  0
   -5.3764    0.7217   -2.2819 H   0  0  0  0  0  0  0  0  0  0  0  0
  1  2  1  0
  2  3  1  0
  3  4  1  0
  4  5  1  0
  5  6  2  0
  6  7  1  0
  7  8  1  0
  8  9  2  0
  9 10  1  0
 10 11  2  0
 11 12  1  0
 12 13  2  0
  4 14  2  0
 14 15  1  0
 15 16  1  0
 16 17  2  0
 16 18  1  0
 15  2  2  0
 13  5  1  0
 13  8  1  0
  1 19  1  0
  1 20  1  0
  1 21  1  0
  6 22  1  0
  9 23  1  0
 10 24  1  0
 11 25  1  0
 12 26  1  0
 14 27  1  0
 18 28  1  0
M  END
$$$$
