
     RDKit          3D

 44 46  0  0  0  0  0  0  0  0999 V2000
   -3.9766    1.6071   -2.5446 C   0  0  0  0  0  0  0  0  0  0  0  0
   -3.5040    2.3214   -1.2887 C   0  0  0  0  0  0  0  0  0  0  0  0
   -3.2940    1.3720   -0.1649 C   0  0  0  0  0  0  0  0  0  0  0  0
   -4.3398    1.2501    0.7011 O   0  0  0  0  0  0  0  0  0  0  0  0
   -3.9716    0.3530    1.6525 C   0  0  0  0  0  0  0  0  0  0  0  0
   -4.7729   -0.0430    2.7224 C   0  0  0  0  0  0  0  0  0  0  0  0
   -4.2264   -0.9774    3.6048 C   0  0  0  0  0  0  0  0  0  0  0  0
   -2.9396   -1.4790    3.4091 C   0  0  0  0  0  0  0  0  0  0  0  0
   -2.1572   -1.0606    2.3211 C   0  0  0  0  0  0  0  0  0  0  0  0
   -2.6833   -0.1181    1.4137 C   0  0  0  0  0  0  0  0  0  0  0  0
   -2.2535    0.5491    0.2282 C   0  0  0  0  0  0  0  0  0  0  0  0
   -0.9071    0.4398   -0.5480 C   0  0  0  0  0  0  0  0  0  0  0  0
    0.1820   -0.3488   -0.2413 C   0  0  0  0  0  0  0  0  0  0  0  0
    1.1779   -0.1159   -1.2387 C   0  0  0  0  0  0  0  0  0  0  0  0
    2.4998   -0.7001   -1.3635 C   0  0  0  0  0  0  0  0  0  0  0  0
    3.2943   -0.4035   -2.2479 O   0  0  0  0  0  0  0  0  0  0  0  0
    2.7498   -1.6129   -0.3826 O   0  0  0  0  0  0  0  0  0  0  0  0
    4.0539   -2.2214   -0.4156 C   0  0  0  0  0  0  0  0  0  0  0  0
    5.1179   -1.2913    0.1667 C   0  0  0  0  0  0  0  0  0  0  0  0
    4.8635   -1.1080    1.5633 O   0  0  0  0  0  0  0  0  0  0  0  0
    5.8056   -0.2231    2.1553 C   0  0  0  0  0  0  0  0  0  0  0  0
    0.6211    0.8128   -2.0973 C   0  0  0  0  0  0  0  0  0  0  0  0
    1.1027    1.4833   -3.3244 C   0  0  0  0  0  0  0  0  0  0  0  0
   -0.6310    1.1466   -1.6852 O   0  0  0  0  0  0  0  0  0  0  0  0
   -3.2432    0.8688   -2.8856 H   0  0  0  0  0  0  0  0  0  0  0  0
   -4.1335    2.3273   -3.3538 H   0  0  0  0  0  0  0  0  0  0  0  0
   -4.9220    1.0825   -2.3684 H   0  0  0  0  0  0  0  0  0  0  0  0
   -2.5800    2.8708   -1.4981 H   0  0  0  0  0  0  0  0  0  0  0  0
   -4.2498    3.0725   -1.0017 H   0  0  0  0  0  0  0  0  0  0  0  0
   -5.7695    0.3598    2.8557 H   0  0  0  0  0  0  0  0  0  0  0  0
   -4.8135   -1.3167    4.4554 H   0  0  0  0  0  0  0  0  0  0  0  0
   -2.5341   -2.2058    4.1101 H   0  0  0  0  0  0  0  0  0  0  0  0
   -1.1611   -1.4705    2.2005 H   0  0  0  0  0  0  0  0  0  0  0  0
    0.2782   -1.0214    0.5966 H   0  0  0  0  0  0  0  0  0  0  0  0
    3.9831   -3.1316    0.1894 H   0  0  0  0  0  0  0  0  0  0  0  0
    4.3054   -2.5224   -1.4390 H   0  0  0  0  0  0  0  0  0  0  0  0
    6.1074   -1.7445    0.0413 H   0  0  0  0  0  0  0  0  0  0  0  0
    5.1007   -0.3152   -0.3289 H   0  0  0  0  0  0  0  0  0  0  0  0
    5.7430    0.7671    1.6939 H   0  0  0  0  0  0  0  0  0  0  0  0
    5.5683   -0.1285    3.2182 H   0  0  0  0  0  0  0  0  0  0  0  0
    6.8198   -0.6219    2.0572 H   0  0  0  0  0  0  0  0  0  0  0  0
    2.0003    2.0719   -3.1117 H   0  0  0  0  0  0  0  0  0  0  0  0
    0.3442    2.1591   -3.7321 H   0  0  0  0  0  0  0  0  0  0  0  0
    1.3451    0.7446   -4.0945 H   0  0  0  0  0  0  0  0  0  0  0  0
  1  2  1  0
  2  3  1  0
  3  4  1  0
  4  5  1  0
  5  6  2  0
  6  7  1  0
  7  8  2  0
  8  9  1  0
  9 10  2  0
 10 11  1  0
 11 12  1  0
 12 13  2  0
 13 14  1  0
 14 15  1  0
 15 16  2  0
 15 17  1  0
 17 18  1  0
 18 19  1  0
 19 20  1  0
 20 21  1  0
 14 22  2  0
 22 23  1  0
 22 24  1  0
 11  3  2  0
 24 12  1  0
 10  5  1  0
  1 25  1  0
  1 26  1  0
  1 27  1  0
  2 28  1  0
  2 29  1  0
  6 30  1  0
  7 31  1  0
  8 32  1  0
  9 33  1  0
 13 34  1  0
 18 35  1  0
 18 36  1  0
 19 37  1  0
 19 38  1  0
 21 39  1  0
 21 40  1  0
 21 41  1  0
 23 42  1  0
 23 43  1  0
 23 44  1  0
M  END
$$$$
