
     RDKit          3D

 40 42  0  0  0  0  0  0  0  0999 V2000
    5.3709    1.6099    1.5310 C   0  0  0  0  0  0  0  0  0  0  0  0
    4.8086    1.9262    0.1578 C   0  0  0  0  0  0  0  0  0  0  0  0
    3.4760    1.4089    0.0373 O   0  0  0  0  0  0  0  0  0  0  0  0
    3.3762    0.1099   -0.3710 C   0  0  0  0  0  0  0  0  0  0  0  0
    4.3321   -0.6120   -0.6259 O   0  0  0  0  0  0  0  0  0  0  0  0
    1.9943   -0.3235   -0.4660 C   0  0  0  0  0  0  0  0  0  0  0  0
    0.7985    0.4109   -0.1975 C   0  0  0  0  0  0  0  0  0  0  0  0
   -0.2687   -0.4312   -0.4305 C   0  0  0  0  0  0  0  0  0  0  0  0
   -1.7862   -0.1118   -0.2798 C   0  0  0  0  0  0  0  0  0  0  0  0
   -2.7866   -1.0316   -0.5399 C   0  0  0  0  0  0  0  0  0  0  0  0
   -2.8090   -2.4464   -0.9939 C   0  0  0  0  0  0  0  0  0  0  0  0
   -2.6237   -3.4102    0.1669 C   0  0  0  0  0  0  0  0  0  0  0  0
   -4.0083   -0.4701   -0.3146 O   0  0  0  0  0  0  0  0  0  0  0  0
   -3.7949    0.8098    0.0872 C   0  0  0  0  0  0  0  0  0  0  0  0
   -4.8015    1.7171    0.4145 C   0  0  0  0  0  0  0  0  0  0  0  0
   -4.3936    2.9933    0.8084 C   0  0  0  0  0  0  0  0  0  0  0  0
   -3.0402    3.3259    0.8659 C   0  0  0  0  0  0  0  0  0  0  0  0
   -2.0497    2.3894    0.5301 C   0  0  0  0  0  0  0  0  0  0  0  0
   -2.4322    1.0930    0.1283 C   0  0  0  0  0  0  0  0  0  0  0  0
    0.2108   -1.6475   -0.8295 O   0  0  0  0  0  0  0  0  0  0  0  0
    1.5687   -1.5812   -0.8496 C   0  0  0  0  0  0  0  0  0  0  0  0
    2.2745   -2.8148   -1.2593 C   0  0  0  0  0  0  0  0  0  0  0  0
    6.3636    2.0517    1.6547 H   0  0  0  0  0  0  0  0  0  0  0  0
    5.4478    0.5290    1.6851 H   0  0  0  0  0  0  0  0  0  0  0  0
    4.7115    1.9971    2.3148 H   0  0  0  0  0  0  0  0  0  0  0  0
    5.4582    1.5479   -0.6398 H   0  0  0  0  0  0  0  0  0  0  0  0
    4.7425    3.0116    0.0293 H   0  0  0  0  0  0  0  0  0  0  0  0
    0.7514    1.4379    0.1286 H   0  0  0  0  0  0  0  0  0  0  0  0
   -2.0312   -2.6152   -1.7461 H   0  0  0  0  0  0  0  0  0  0  0  0
   -3.7650   -2.6596   -1.4873 H   0  0  0  0  0  0  0  0  0  0  0  0
   -1.6630   -3.2530    0.6686 H   0  0  0  0  0  0  0  0  0  0  0  0
   -2.6537   -4.4443   -0.1907 H   0  0  0  0  0  0  0  0  0  0  0  0
   -3.4153   -3.2857    0.9138 H   0  0  0  0  0  0  0  0  0  0  0  0
   -5.8468    1.4375    0.3630 H   0  0  0  0  0  0  0  0  0  0  0  0
   -5.1430    3.7359    1.0736 H   0  0  0  0  0  0  0  0  0  0  0  0
   -2.7463    4.3267    1.1760 H   0  0  0  0  0  0  0  0  0  0  0  0
   -1.0078    2.6820    0.5864 H   0  0  0  0  0  0  0  0  0  0  0  0
    2.9332   -3.1631   -0.4580 H   0  0  0  0  0  0  0  0  0  0  0  0
    1.5684   -3.6191   -1.4893 H   0  0  0  0  0  0  0  0  0  0  0  0
    2.8795   -2.6311   -2.1524 H   0  0  0  0  0  0  0  0  0  0  0  0
  1  2  1  0
  2  3  1  0
  3  4  1  0
  4  5  2  0
  4  6  1  0
  6  7  1  0
  7  8  2  0
  8  9  1  0
  9 10  2  0
 10 11  1  0
 11 12  1  0
 10 13  1  0
 13 14  1  0
 14 15  2  0
 15 16  1  0
 16 17  2  0
 17 18  1  0
 18 19  2  0
  8 20  1  0
 20 21  1  0
 21 22  1  0
 21  6  2  0
 19  9  1  0
 19 14  1  0
  1 23  1  0
  1 24  1  0
  1 25  1  0
  2 26  1  0
  2 27  1  0
  7 28  1  0
 11 29  1  0
 11 30  1  0
 12 31  1  0
 12 32  1  0
 12 33  1  0
 15 34  1  0
 16 35  1  0
 17 36  1  0
 18 37  1  0
 22 38  1  0
 22 39  1  0
 22 40  1  0
M  END
$$$$
