
     RDKit          3D

 41 43  0  0  0  0  0  0  0  0999 V2000
   -1.6941    3.3284    0.0160 C   0  0  0  0  0  0  0  0  0  0  0  0
   -1.8815    2.4077   -1.1790 C   0  0  0  0  0  0  0  0  0  0  0  0
   -2.4446    1.0941   -0.7764 C   0  0  0  0  0  0  0  0  0  0  0  0
   -3.8022    0.9977   -0.9066 O   0  0  0  0  0  0  0  0  0  0  0  0
   -4.1636   -0.2503   -0.5097 C   0  0  0  0  0  0  0  0  0  0  0  0
   -5.4669   -0.7429   -0.4950 C   0  0  0  0  0  0  0  0  0  0  0  0
   -5.6337   -2.0581   -0.0505 C   0  0  0  0  0  0  0  0  0  0  0  0
   -4.5395   -2.8252    0.3548 C   0  0  0  0  0  0  0  0  0  0  0  0
   -3.2397   -2.2988    0.3280 C   0  0  0  0  0  0  0  0  0  0  0  0
   -3.0468   -0.9757   -0.1167 C   0  0  0  0  0  0  0  0  0  0  0  0
   -1.9360   -0.0968   -0.2894 C   0  0  0  0  0  0  0  0  0  0  0  0
   -0.4506   -0.4498    0.0249 C   0  0  0  0  0  0  0  0  0  0  0  0
    0.6646    0.3521   -0.1048 C   0  0  0  0  0  0  0  0  0  0  0  0
    1.7978   -0.4139    0.3080 C   0  0  0  0  0  0  0  0  0  0  0  0
    3.1941   -0.0271    0.3592 C   0  0  0  0  0  0  0  0  0  0  0  0
    4.0963   -0.7695    0.7290 O   0  0  0  0  0  0  0  0  0  0  0  0
    3.3908    1.2526   -0.0667 O   0  0  0  0  0  0  0  0  0  0  0  0
    4.7415    1.7553    0.0000 C   0  0  0  0  0  0  0  0  0  0  0  0
    5.6330    1.1471   -1.0846 C   0  0  0  0  0  0  0  0  0  0  0  0
    6.2899   -0.0342   -0.6325 O   0  0  0  0  0  0  0  0  0  0  0  0
    1.2901   -1.6481    0.6667 C   0  0  0  0  0  0  0  0  0  0  0  0
    1.9034   -2.8940    1.1767 C   0  0  0  0  0  0  0  0  0  0  0  0
   -0.0587   -1.6712    0.4985 O   0  0  0  0  0  0  0  0  0  0  0  0
   -2.6483    3.5208    0.5186 H   0  0  0  0  0  0  0  0  0  0  0  0
   -1.2814    4.2893   -0.3071 H   0  0  0  0  0  0  0  0  0  0  0  0
   -1.0103    2.8964    0.7540 H   0  0  0  0  0  0  0  0  0  0  0  0
   -0.9322    2.2708   -1.7056 H   0  0  0  0  0  0  0  0  0  0  0  0
   -2.5558    2.8918   -1.8962 H   0  0  0  0  0  0  0  0  0  0  0  0
   -6.3029   -0.1324   -0.8131 H   0  0  0  0  0  0  0  0  0  0  0  0
   -6.6323   -2.4889   -0.0205 H   0  0  0  0  0  0  0  0  0  0  0  0
   -4.6946   -3.8463    0.6969 H   0  0  0  0  0  0  0  0  0  0  0  0
   -2.3973   -2.9060    0.6464 H   0  0  0  0  0  0  0  0  0  0  0  0
    0.6893    1.3742   -0.4494 H   0  0  0  0  0  0  0  0  0  0  0  0
    5.1451    1.5995    1.0071 H   0  0  0  0  0  0  0  0  0  0  0  0
    4.6587    2.8339   -0.1683 H   0  0  0  0  0  0  0  0  0  0  0  0
    5.0590    0.8972   -1.9821 H   0  0  0  0  0  0  0  0  0  0  0  0
    6.4218    1.8552   -1.3554 H   0  0  0  0  0  0  0  0  0  0  0  0
    5.6413   -0.5750   -0.1344 H   0  0  0  0  0  0  0  0  0  0  0  0
    1.1491   -3.6694    1.3437 H   0  0  0  0  0  0  0  0  0  0  0  0
    2.6337   -3.2822    0.4601 H   0  0  0  0  0  0  0  0  0  0  0  0
    2.4130   -2.7084    2.1271 H   0  0  0  0  0  0  0  0  0  0  0  0
  1  2  1  0
  2  3  1  0
  3  4  1  0
  4  5  1  0
  5  6  2  0
  6  7  1  0
  7  8  2  0
  8  9  1  0
  9 10  2  0
 10 11  1  0
 11 12  1  0
 12 13  2  0
 13 14  1  0
 14 15  1  0
 15 16  2  0
 15 17  1  0
 17 18  1  0
 18 19  1  0
 19 20  1  0
 14 21  2  0
 21 22  1  0
 21 23  1  0
 11  3  2  0
 23 12  1  0
 10  5  1  0
  1 24  1  0
  1 25  1  0
  1 26  1  0
  2 27  1  0
  2 28  1  0
  6 29  1  0
  7 30  1  0
  8 31  1  0
  9 32  1  0
 13 33  1  0
 18 34  1  0
 18 35  1  0
 19 36  1  0
 19 37  1  0
 20 38  1  0
 22 39  1  0
 22 40  1  0
 22 41  1  0
M  END
$$$$
