
     RDKit          3D

 34 36  0  0  0  0  0  0  0  0999 V2000
   -5.6007    0.4044    1.3715 C   0  0  0  0  0  0  0  0  0  0  0  0
   -4.9625    1.2936    0.3209 C   0  0  0  0  0  0  0  0  0  0  0  0
   -3.5461    1.0703    0.2771 O   0  0  0  0  0  0  0  0  0  0  0  0
   -3.1285    0.0502   -0.5284 C   0  0  0  0  0  0  0  0  0  0  0  0
   -3.8749   -0.6620   -1.1884 O   0  0  0  0  0  0  0  0  0  0  0  0
   -1.6848   -0.0979   -0.5106 C   0  0  0  0  0  0  0  0  0  0  0  0
   -0.7105    0.6575    0.2098 C   0  0  0  0  0  0  0  0  0  0  0  0
    0.5273    0.1343   -0.1024 C   0  0  0  0  0  0  0  0  0  0  0  0
    1.8988    0.6185    0.4323 C   0  0  0  0  0  0  0  0  0  0  0  0
    2.0947    1.6578    1.3119 C   0  0  0  0  0  0  0  0  0  0  0  0
    3.4197    1.8171    1.5732 O   0  0  0  0  0  0  0  0  0  0  0  0
    4.0813    0.8686    0.8525 C   0  0  0  0  0  0  0  0  0  0  0  0
    5.4626    0.6868    0.8369 C   0  0  0  0  0  0  0  0  0  0  0  0
    5.9484   -0.3464    0.0290 C   0  0  0  0  0  0  0  0  0  0  0  0
    5.0810   -1.1470   -0.7185 C   0  0  0  0  0  0  0  0  0  0  0  0
    3.6946   -0.9394   -0.6820 C   0  0  0  0  0  0  0  0  0  0  0  0
    3.1828    0.0950    0.1244 C   0  0  0  0  0  0  0  0  0  0  0  0
    0.3694   -0.9019   -0.9756 O   0  0  0  0  0  0  0  0  0  0  0  0
   -0.9623   -1.0404   -1.2202 C   0  0  0  0  0  0  0  0  0  0  0  0
   -1.3431   -2.1234   -2.1533 C   0  0  0  0  0  0  0  0  0  0  0  0
   -6.6717    0.6097    1.4547 H   0  0  0  0  0  0  0  0  0  0  0  0
   -5.1328    0.5667    2.3480 H   0  0  0  0  0  0  0  0  0  0  0  0
   -5.4658   -0.6537    1.1258 H   0  0  0  0  0  0  0  0  0  0  0  0
   -5.1118    2.3446    0.5895 H   0  0  0  0  0  0  0  0  0  0  0  0
   -5.4212    1.1461   -0.6636 H   0  0  0  0  0  0  0  0  0  0  0  0
   -0.9045    1.4859    0.8769 H   0  0  0  0  0  0  0  0  0  0  0  0
    1.4388    2.3495    1.8205 H   0  0  0  0  0  0  0  0  0  0  0  0
    6.1203    1.3170    1.4229 H   0  0  0  0  0  0  0  0  0  0  0  0
    7.0201   -0.5285   -0.0171 H   0  0  0  0  0  0  0  0  0  0  0  0
    5.4847   -1.9443   -1.3391 H   0  0  0  0  0  0  0  0  0  0  0  0
    3.0285   -1.5675   -1.2670 H   0  0  0  0  0  0  0  0  0  0  0  0
   -2.0006   -2.8433   -1.6564 H   0  0  0  0  0  0  0  0  0  0  0  0
   -1.8682   -1.7136   -3.0215 H   0  0  0  0  0  0  0  0  0  0  0  0
   -0.4630   -2.6641   -2.5155 H   0  0  0  0  0  0  0  0  0  0  0  0
  1  2  1  0
  2  3  1  0
  3  4  1  0
  4  5  2  0
  4  6  1  0
  6  7  1  0
  7  8  2  0
  8  9  1  0
  9 10  2  0
 10 11  1  0
 11 12  1  0
 12 13  2  0
 13 14  1  0
 14 15  2  0
 15 16  1  0
 16 17  2  0
  8 18  1  0
 18 19  1  0
 19 20  1  0
 19  6  2  0
 17  9  1  0
 17 12  1  0
  1 21  1  0
  1 22  1  0
  1 23  1  0
  2 24  1  0
  2 25  1  0
  7 26  1  0
 10 27  1  0
 13 28  1  0
 14 29  1  0
 15 30  1  0
 16 31  1  0
 20 32  1  0
 20 33  1  0
 20 34  1  0
M  END
$$$$
