
     RDKit          3D

 37 39  0  0  0  0  0  0  0  0999 V2000
    0.1534   -3.1128   -1.2879 C   0  0  0  0  0  0  0  0  0  0  0  0
    0.1088   -1.7250   -0.7776 C   0  0  0  0  0  0  0  0  0  0  0  0
   -1.1196   -1.2555   -0.4266 O   0  0  0  0  0  0  0  0  0  0  0  0
   -0.9653    0.0257    0.0160 C   0  0  0  0  0  0  0  0  0  0  0  0
   -2.1298    0.9198    0.5119 C   0  0  0  0  0  0  0  0  0  0  0  0
   -2.0108    2.2134    0.9642 C   0  0  0  0  0  0  0  0  0  0  0  0
   -3.2265    2.7065    1.3220 O   0  0  0  0  0  0  0  0  0  0  0  0
   -4.1361    1.7173    1.0964 C   0  0  0  0  0  0  0  0  0  0  0  0
   -5.5058    1.8133    1.3325 C   0  0  0  0  0  0  0  0  0  0  0  0
   -6.2727    0.6822    1.0344 C   0  0  0  0  0  0  0  0  0  0  0  0
   -5.6817   -0.4774    0.5264 C   0  0  0  0  0  0  0  0  0  0  0  0
   -4.2994   -0.5436    0.2992 C   0  0  0  0  0  0  0  0  0  0  0  0
   -3.5074    0.5830    0.5920 C   0  0  0  0  0  0  0  0  0  0  0  0
    0.3682    0.3728   -0.0539 C   0  0  0  0  0  0  0  0  0  0  0  0
    1.0743   -0.7567   -0.5679 C   0  0  0  0  0  0  0  0  0  0  0  0
    2.4938   -0.9067   -0.8307 C   0  0  0  0  0  0  0  0  0  0  0  0
    2.9964   -1.9306   -1.2765 O   0  0  0  0  0  0  0  0  0  0  0  0
    3.1907    0.2251   -0.5203 O   0  0  0  0  0  0  0  0  0  0  0  0
    4.6120    0.1777   -0.7424 C   0  0  0  0  0  0  0  0  0  0  0  0
    5.0839    1.6143   -0.9317 C   0  0  0  0  0  0  0  0  0  0  0  0
    5.2959   -0.4599    0.4617 C   0  0  0  0  0  0  0  0  0  0  0  0
    0.7932   -3.7336   -0.6533 H   0  0  0  0  0  0  0  0  0  0  0  0
   -0.8443   -3.5628   -1.3042 H   0  0  0  0  0  0  0  0  0  0  0  0
    0.5495   -3.1331   -2.3078 H   0  0  0  0  0  0  0  0  0  0  0  0
   -1.1822    2.8953    1.0901 H   0  0  0  0  0  0  0  0  0  0  0  0
   -5.9471    2.7203    1.7268 H   0  0  0  0  0  0  0  0  0  0  0  0
   -7.3475    0.7074    1.2015 H   0  0  0  0  0  0  0  0  0  0  0  0
   -6.3009   -1.3436    0.3028 H   0  0  0  0  0  0  0  0  0  0  0  0
   -3.8494   -1.4499   -0.0961 H   0  0  0  0  0  0  0  0  0  0  0  0
    0.7968    1.3243    0.2288 H   0  0  0  0  0  0  0  0  0  0  0  0
    4.8405   -0.3849   -1.6557 H   0  0  0  0  0  0  0  0  0  0  0  0
    4.5729    2.0729   -1.7852 H   0  0  0  0  0  0  0  0  0  0  0  0
    4.8432    2.2267   -0.0555 H   0  0  0  0  0  0  0  0  0  0  0  0
    6.1631    1.6592   -1.1064 H   0  0  0  0  0  0  0  0  0  0  0  0
    5.0448    0.0760    1.3837 H   0  0  0  0  0  0  0  0  0  0  0  0
    4.9613   -1.4932    0.5994 H   0  0  0  0  0  0  0  0  0  0  0  0
    6.3838   -0.4640    0.3429 H   0  0  0  0  0  0  0  0  0  0  0  0
  1  2  1  0
  2  3  1  0
  3  4  1  0
  4  5  1  0
  5  6  2  0
  6  7  1  0
  7  8  1  0
  8  9  2  0
  9 10  1  0
 10 11  2  0
 11 12  1  0
 12 13  2  0
  4 14  2  0
 14 15  1  0
 15 16  1  0
 16 17  2  0
 16 18  1  0
 18 19  1  0
 19 20  1  0
 19 21  1  0
 15  2  2  0
 13  5  1  0
 13  8  1  0
  1 22  1  0
  1 23  1  0
  1 24  1  0
  6 25  1  0
  9 26  1  0
 10 27  1  0
 11 28  1  0
 12 29  1  0
 14 30  1  0
 19 31  1  0
 20 32  1  0
 20 33  1  0
 20 34  1  0
 21 35  1  0
 21 36  1  0
 21 37  1  0
M  END
$$$$
