
     RDKit          3D

 37 39  0  0  0  0  0  0  0  0999 V2000
   -5.1279    1.8419    0.3745 C   0  0  0  0  0  0  0  0  0  0  0  0
   -5.3113    0.5101    1.0885 C   0  0  0  0  0  0  0  0  0  0  0  0
   -4.6388   -0.6420    0.3489 C   0  0  0  0  0  0  0  0  0  0  0  0
   -3.2245   -0.4150    0.3185 O   0  0  0  0  0  0  0  0  0  0  0  0
   -2.5130   -1.3802   -0.3335 C   0  0  0  0  0  0  0  0  0  0  0  0
   -3.0102   -2.3716   -0.8533 O   0  0  0  0  0  0  0  0  0  0  0  0
   -1.0905   -1.0939   -0.3401 C   0  0  0  0  0  0  0  0  0  0  0  0
   -0.3936    0.0184    0.2218 C   0  0  0  0  0  0  0  0  0  0  0  0
    0.9479   -0.1603   -0.0461 C   0  0  0  0  0  0  0  0  0  0  0  0
    2.1071    0.7839    0.3615 C   0  0  0  0  0  0  0  0  0  0  0  0
    1.9742    1.9604    1.0619 C   0  0  0  0  0  0  0  0  0  0  0  0
    3.1889    2.5415    1.2515 O   0  0  0  0  0  0  0  0  0  0  0  0
    4.1118    1.7280    0.6655 C   0  0  0  0  0  0  0  0  0  0  0  0
    5.4852    1.9604    0.6329 C   0  0  0  0  0  0  0  0  0  0  0  0
    6.2664    1.0016   -0.0203 C   0  0  0  0  0  0  0  0  0  0  0  0
    5.6854   -0.1264   -0.6053 C   0  0  0  0  0  0  0  0  0  0  0  0
    4.2992   -0.3327   -0.5559 C   0  0  0  0  0  0  0  0  0  0  0  0
    3.4928    0.6194    0.0964 C   0  0  0  0  0  0  0  0  0  0  0  0
    1.1159   -1.3216   -0.7421 O   0  0  0  0  0  0  0  0  0  0  0  0
   -0.1118   -1.8822   -0.9184 C   0  0  0  0  0  0  0  0  0  0  0  0
   -0.1423   -3.1621   -1.6596 C   0  0  0  0  0  0  0  0  0  0  0  0
   -4.0703    2.1157    0.3068 H   0  0  0  0  0  0  0  0  0  0  0  0
   -5.6467    2.6367    0.9199 H   0  0  0  0  0  0  0  0  0  0  0  0
   -5.5386    1.8021   -0.6394 H   0  0  0  0  0  0  0  0  0  0  0  0
   -4.8883    0.5959    2.0962 H   0  0  0  0  0  0  0  0  0  0  0  0
   -6.3814    0.3000    1.1919 H   0  0  0  0  0  0  0  0  0  0  0  0
   -5.0267   -0.7115   -0.6743 H   0  0  0  0  0  0  0  0  0  0  0  0
   -4.8429   -1.5794    0.8792 H   0  0  0  0  0  0  0  0  0  0  0  0
   -0.8337    0.8479    0.7579 H   0  0  0  0  0  0  0  0  0  0  0  0
    1.1357    2.4998    1.4782 H   0  0  0  0  0  0  0  0  0  0  0  0
    5.9185    2.8405    1.0918 H   0  0  0  0  0  0  0  0  0  0  0  0
    7.3446    1.1378   -0.0728 H   0  0  0  0  0  0  0  0  0  0  0  0
    6.3158   -0.8573   -1.1075 H   0  0  0  0  0  0  0  0  0  0  0  0
    3.8571   -1.2130   -1.0139 H   0  0  0  0  0  0  0  0  0  0  0  0
   -0.7509   -3.0663   -2.5639 H   0  0  0  0  0  0  0  0  0  0  0  0
    0.8636   -3.4713   -1.9608 H   0  0  0  0  0  0  0  0  0  0  0  0
   -0.5667   -3.9552   -1.0365 H   0  0  0  0  0  0  0  0  0  0  0  0
  1  2  1  0
  2  3  1  0
  3  4  1  0
  4  5  1  0
  5  6  2  0
  5  7  1  0
  7  8  1  0
  8  9  2  0
  9 10  1  0
 10 11  2  0
 11 12  1  0
 12 13  1  0
 13 14  2  0
 14 15  1  0
 15 16  2  0
 16 17  1  0
 17 18  2  0
  9 19  1  0
 19 20  1  0
 20 21  1  0
 20  7  2  0
 18 10  1  0
 18 13  1  0
  1 22  1  0
  1 23  1  0
  1 24  1  0
  2 25  1  0
  2 26  1  0
  3 27  1  0
  3 28  1  0
  8 29  1  0
 11 30  1  0
 14 31  1  0
 15 32  1  0
 16 33  1  0
 17 34  1  0
 21 35  1  0
 21 36  1  0
 21 37  1  0
M  END
$$$$
