
     RDKit          3D

 37 39  0  0  0  0  0  0  0  0999 V2000
    5.5217   -1.5160    1.3385 C   0  0  0  0  0  0  0  0  0  0  0  0
    5.1234   -0.6211    0.1810 C   0  0  0  0  0  0  0  0  0  0  0  0
    3.6982   -0.4825    0.1942 O   0  0  0  0  0  0  0  0  0  0  0  0
    3.2022    0.3055   -0.8045 C   0  0  0  0  0  0  0  0  0  0  0  0
    3.8911    0.8590   -1.6528 O   0  0  0  0  0  0  0  0  0  0  0  0
    1.7563    0.4122   -0.7450 C   0  0  0  0  0  0  0  0  0  0  0  0
    0.8468   -0.1785    0.1848 C   0  0  0  0  0  0  0  0  0  0  0  0
   -0.4262    0.2168   -0.1715 C   0  0  0  0  0  0  0  0  0  0  0  0
   -1.7701   -0.1540    0.5214 C   0  0  0  0  0  0  0  0  0  0  0  0
   -1.9477   -0.9553    1.6334 C   0  0  0  0  0  0  0  0  0  0  0  0
   -1.0496   -1.7103    2.5307 C   0  0  0  0  0  0  0  0  0  0  0  0
   -3.2767   -1.0406    1.9369 O   0  0  0  0  0  0  0  0  0  0  0  0
   -3.9508   -0.2952    1.0210 C   0  0  0  0  0  0  0  0  0  0  0  0
   -5.3332   -0.1240    0.9841 C   0  0  0  0  0  0  0  0  0  0  0  0
   -5.8365    0.6837   -0.0404 C   0  0  0  0  0  0  0  0  0  0  0  0
   -4.9840    1.2813   -0.9714 C   0  0  0  0  0  0  0  0  0  0  0  0
   -3.5962    1.0890   -0.9067 C   0  0  0  0  0  0  0  0  0  0  0  0
   -3.0661    0.2791    0.1170 C   0  0  0  0  0  0  0  0  0  0  0  0
   -0.3462    1.0209   -1.2736 O   0  0  0  0  0  0  0  0  0  0  0  0
    0.9649    1.1370   -1.6163 C   0  0  0  0  0  0  0  0  0  0  0  0
    1.2569    1.9776   -2.7979 C   0  0  0  0  0  0  0  0  0  0  0  0
    5.0437   -2.4971    1.2493 H   0  0  0  0  0  0  0  0  0  0  0  0
    5.1907   -1.0860    2.2896 H   0  0  0  0  0  0  0  0  0  0  0  0
    6.6061   -1.6528    1.3709 H   0  0  0  0  0  0  0  0  0  0  0  0
    5.4426   -1.0752   -0.7638 H   0  0  0  0  0  0  0  0  0  0  0  0
    5.5923    0.3625    0.2961 H   0  0  0  0  0  0  0  0  0  0  0  0
    1.1162   -0.8169    1.0127 H   0  0  0  0  0  0  0  0  0  0  0  0
   -0.3407   -1.0367    3.0214 H   0  0  0  0  0  0  0  0  0  0  0  0
   -1.6128   -2.2287    3.3135 H   0  0  0  0  0  0  0  0  0  0  0  0
   -0.4894   -2.4640    1.9693 H   0  0  0  0  0  0  0  0  0  0  0  0
   -5.9782   -0.5956    1.7150 H   0  0  0  0  0  0  0  0  0  0  0  0
   -6.9095    0.8483   -0.1120 H   0  0  0  0  0  0  0  0  0  0  0  0
   -5.3997    1.9055   -1.7595 H   0  0  0  0  0  0  0  0  0  0  0  0
   -2.9431    1.5589   -1.6364 H   0  0  0  0  0  0  0  0  0  0  0  0
    1.7578    1.3887   -3.5723 H   0  0  0  0  0  0  0  0  0  0  0  0
    1.9063    2.8139   -2.5216 H   0  0  0  0  0  0  0  0  0  0  0  0
    0.3393    2.3907   -3.2287 H   0  0  0  0  0  0  0  0  0  0  0  0
  1  2  1  0
  2  3  1  0
  3  4  1  0
  4  5  2  0
  4  6  1  0
  6  7  1  0
  7  8  2  0
  8  9  1  0
  9 10  2  0
 10 11  1  0
 10 12  1  0
 12 13  1  0
 13 14  2  0
 14 15  1  0
 15 16  2  0
 16 17  1  0
 17 18  2  0
  8 19  1  0
 19 20  1  0
 20 21  1  0
 20  6  2  0
 18  9  1  0
 18 13  1  0
  1 22  1  0
  1 23  1  0
  1 24  1  0
  2 25  1  0
  2 26  1  0
  7 27  1  0
 11 28  1  0
 11 29  1  0
 11 30  1  0
 14 31  1  0
 15 32  1  0
 16 33  1  0
 17 34  1  0
 21 35  1  0
 21 36  1  0
 21 37  1  0
M  END
$$$$
