
     RDKit          3D

 43 45  0  0  0  0  0  0  0  0999 V2000
   -3.4385   -3.4455   -1.5413 C   0  0  0  0  0  0  0  0  0  0  0  0
   -3.1237   -2.0032   -1.1779 C   0  0  0  0  0  0  0  0  0  0  0  0
   -2.9402   -1.8343    0.3299 C   0  0  0  0  0  0  0  0  0  0  0  0
   -2.6137   -0.4272    0.6839 C   0  0  0  0  0  0  0  0  0  0  0  0
   -3.6714    0.3403    1.0715 O   0  0  0  0  0  0  0  0  0  0  0  0
   -3.1875    1.5779    1.3540 C   0  0  0  0  0  0  0  0  0  0  0  0
   -3.9621    2.6530    1.7872 C   0  0  0  0  0  0  0  0  0  0  0  0
   -3.2914    3.8537    2.0292 C   0  0  0  0  0  0  0  0  0  0  0  0
   -1.9129    3.9539    1.8410 C   0  0  0  0  0  0  0  0  0  0  0  0
   -1.1601    2.8526    1.4034 C   0  0  0  0  0  0  0  0  0  0  0  0
   -1.8107    1.6272    1.1516 C   0  0  0  0  0  0  0  0  0  0  0  0
   -1.4487    0.3186    0.7143 C   0  0  0  0  0  0  0  0  0  0  0  0
   -0.0549   -0.2556    0.3209 C   0  0  0  0  0  0  0  0  0  0  0  0
    1.1584    0.4002    0.3174 C   0  0  0  0  0  0  0  0  0  0  0  0
    2.1504   -0.5303   -0.1203 C   0  0  0  0  0  0  0  0  0  0  0  0
    3.5775   -0.3329   -0.2955 C   0  0  0  0  0  0  0  0  0  0  0  0
    4.3406   -1.2093   -0.6821 O   0  0  0  0  0  0  0  0  0  0  0  0
    3.9582    0.9401    0.0182 O   0  0  0  0  0  0  0  0  0  0  0  0
    5.3566    1.2278   -0.1231 C   0  0  0  0  0  0  0  0  0  0  0  0
    5.6632    1.6488   -1.5480 C   0  0  0  0  0  0  0  0  0  0  0  0
    1.4644   -1.7065   -0.3574 C   0  0  0  0  0  0  0  0  0  0  0  0
    1.8739   -3.0490   -0.8241 C   0  0  0  0  0  0  0  0  0  0  0  0
    0.1410   -1.5437   -0.0920 O   0  0  0  0  0  0  0  0  0  0  0  0
   -3.5696   -3.5437   -2.6235 H   0  0  0  0  0  0  0  0  0  0  0  0
   -2.6261   -4.1126   -1.2358 H   0  0  0  0  0  0  0  0  0  0  0  0
   -4.3605   -3.7804   -1.0556 H   0  0  0  0  0  0  0  0  0  0  0  0
   -3.9363   -1.3565   -1.5313 H   0  0  0  0  0  0  0  0  0  0  0  0
   -2.2177   -1.6900   -1.7105 H   0  0  0  0  0  0  0  0  0  0  0  0
   -3.8599   -2.1358    0.8469 H   0  0  0  0  0  0  0  0  0  0  0  0
   -2.1521   -2.5026    0.6950 H   0  0  0  0  0  0  0  0  0  0  0  0
   -5.0317    2.5532    1.9266 H   0  0  0  0  0  0  0  0  0  0  0  0
   -3.8535    4.7210    2.3688 H   0  0  0  0  0  0  0  0  0  0  0  0
   -1.4120    4.9001    2.0359 H   0  0  0  0  0  0  0  0  0  0  0  0
   -0.0909    2.9661    1.2674 H   0  0  0  0  0  0  0  0  0  0  0  0
    1.3377    1.4278    0.5920 H   0  0  0  0  0  0  0  0  0  0  0  0
    5.5834    2.0526    0.5604 H   0  0  0  0  0  0  0  0  0  0  0  0
    5.9733    0.3762    0.1863 H   0  0  0  0  0  0  0  0  0  0  0  0
    6.7154    1.9281   -1.6520 H   0  0  0  0  0  0  0  0  0  0  0  0
    5.0408    2.5014   -1.8392 H   0  0  0  0  0  0  0  0  0  0  0  0
    5.4450    0.8402   -2.2527 H   0  0  0  0  0  0  0  0  0  0  0  0
    2.3308   -2.9866   -1.8164 H   0  0  0  0  0  0  0  0  0  0  0  0
    2.5995   -3.4895   -0.1335 H   0  0  0  0  0  0  0  0  0  0  0  0
    1.0160   -3.7258   -0.8896 H   0  0  0  0  0  0  0  0  0  0  0  0
  1  2  1  0
  2  3  1  0
  3  4  1  0
  4  5  1  0
  5  6  1  0
  6  7  2  0
  7  8  1  0
  8  9  2  0
  9 10  1  0
 10 11  2  0
 11 12  1  0
 12 13  1  0
 13 14  2  0
 14 15  1  0
 15 16  1  0
 16 17  2  0
 16 18  1  0
 18 19  1  0
 19 20  1  0
 15 21  2  0
 21 22  1  0
 21 23  1  0
 12  4  2  0
 23 13  1  0
 11  6  1  0
  1 24  1  0
  1 25  1  0
  1 26  1  0
  2 27  1  0
  2 28  1  0
  3 29  1  0
  3 30  1  0
  7 31  1  0
  8 32  1  0
  9 33  1  0
 10 34  1  0
 14 35  1  0
 19 36  1  0
 19 37  1  0
 20 38  1  0
 20 39  1  0
 20 40  1  0
 22 41  1  0
 22 42  1  0
 22 43  1  0
M  END
$$$$
