
     RDKit          3D

 45 48  0  0  0  0  0  0  0  0999 V2000
   -4.4653    2.5532    0.5366 C   0  0  0  0  0  0  0  0  0  0  0  0
   -4.2341    1.3701    1.4628 C   0  0  0  0  0  0  0  0  0  0  0  0
   -3.6645    0.2070    0.7338 C   0  0  0  0  0  0  0  0  0  0  0  0
   -4.5701   -0.7234    0.3186 O   0  0  0  0  0  0  0  0  0  0  0  0
   -3.8776   -1.7021   -0.3196 C   0  0  0  0  0  0  0  0  0  0  0  0
   -4.4520   -2.8370   -0.8902 C   0  0  0  0  0  0  0  0  0  0  0  0
   -3.5827   -3.7387   -1.5077 C   0  0  0  0  0  0  0  0  0  0  0  0
   -2.2092   -3.4986   -1.5424 C   0  0  0  0  0  0  0  0  0  0  0  0
   -1.6609   -2.3455   -0.9584 C   0  0  0  0  0  0  0  0  0  0  0  0
   -2.5146   -1.4175   -0.3270 C   0  0  0  0  0  0  0  0  0  0  0  0
   -2.3876   -0.1732    0.3599 C   0  0  0  0  0  0  0  0  0  0  0  0
   -1.1169    0.6720    0.6754 C   0  0  0  0  0  0  0  0  0  0  0  0
    0.1926    0.3833    0.3495 C   0  0  0  0  0  0  0  0  0  0  0  0
    1.0091    1.4493    0.8439 C   0  0  0  0  0  0  0  0  0  0  0  0
    2.4501    1.6476    0.7689 C   0  0  0  0  0  0  0  0  0  0  0  0
    2.9946    2.6915    1.1133 O   0  0  0  0  0  0  0  0  0  0  0  0
    3.1579    0.5666    0.2972 N   0  0  0  0  0  0  0  0  0  0  0  0
    4.6003    0.5811    0.3114 C   0  0  0  0  0  0  0  0  0  0  0  0
    5.0861   -0.5866   -0.4834 C   0  0  0  0  0  0  0  0  0  0  0  0
    5.3741   -0.6411   -1.8336 C   0  0  0  0  0  0  0  0  0  0  0  0
    5.8105   -1.9338   -2.2436 C   0  0  0  0  0  0  0  0  0  0  0  0
    5.8398   -2.8243   -1.1941 C   0  0  0  0  0  0  0  0  0  0  0  0
    5.3412   -2.1036    0.2737 S   0  0  0  0  0  0  0  0  0  0  0  0
    0.1216    2.3307    1.4363 C   0  0  0  0  0  0  0  0  0  0  0  0
    0.2852    3.6294    2.1263 C   0  0  0  0  0  0  0  0  0  0  0  0
   -1.1507    1.8629    1.3421 O   0  0  0  0  0  0  0  0  0  0  0  0
   -3.5300    2.8925    0.0790 H   0  0  0  0  0  0  0  0  0  0  0  0
   -5.1577    2.2928   -0.2713 H   0  0  0  0  0  0  0  0  0  0  0  0
   -4.8937    3.3925    1.0937 H   0  0  0  0  0  0  0  0  0  0  0  0
   -5.1874    1.0847    1.9238 H   0  0  0  0  0  0  0  0  0  0  0  0
   -3.5720    1.6638    2.2842 H   0  0  0  0  0  0  0  0  0  0  0  0
   -5.5218   -3.0034   -0.8522 H   0  0  0  0  0  0  0  0  0  0  0  0
   -3.9846   -4.6391   -1.9673 H   0  0  0  0  0  0  0  0  0  0  0  0
   -1.5517   -4.2155   -2.0300 H   0  0  0  0  0  0  0  0  0  0  0  0
   -0.5896   -2.1915   -1.0058 H   0  0  0  0  0  0  0  0  0  0  0  0
    0.5306   -0.4845   -0.1921 H   0  0  0  0  0  0  0  0  0  0  0  0
    2.7037   -0.3331    0.2549 H   0  0  0  0  0  0  0  0  0  0  0  0
    4.9576    1.5233   -0.1194 H   0  0  0  0  0  0  0  0  0  0  0  0
    4.9371    0.5408    1.3533 H   0  0  0  0  0  0  0  0  0  0  0  0
    5.2757    0.2100   -2.4979 H   0  0  0  0  0  0  0  0  0  0  0  0
    6.0903   -2.1966   -3.2566 H   0  0  0  0  0  0  0  0  0  0  0  0
    6.1312   -3.8656   -1.2172 H   0  0  0  0  0  0  0  0  0  0  0  0
   -0.6719    4.0003    2.5067 H   0  0  0  0  0  0  0  0  0  0  0  0
    0.9687    3.5298    2.9750 H   0  0  0  0  0  0  0  0  0  0  0  0
    0.6886    4.3794    1.4392 H   0  0  0  0  0  0  0  0  0  0  0  0
  1  2  1  0
  2  3  1  0
  3  4  1  0
  4  5  1  0
  5  6  2  0
  6  7  1  0
  7  8  2  0
  8  9  1  0
  9 10  2  0
 10 11  1  0
 11 12  1  0
 12 13  2  0
 13 14  1  0
 14 15  1  0
 15 16  2  0
 15 17  1  0
 17 18  1  0
 18 19  1  0
 19 20  2  0
 20 21  1  0
 21 22  2  0
 22 23  1  0
 14 24  2  0
 24 25  1  0
 24 26  1  0
 11  3  2  0
 26 12  1  0
 10  5  1  0
 23 19  1  0
  1 27  1  0
  1 28  1  0
  1 29  1  0
  2 30  1  0
  2 31  1  0
  6 32  1  0
  7 33  1  0
  8 34  1  0
  9 35  1  0
 13 36  1  0
 17 37  1  0
 18 38  1  0
 18 39  1  0
 20 40  1  0
 21 41  1  0
 22 42  1  0
 25 43  1  0
 25 44  1  0
 25 45  1  0
M  END
$$$$
