
     RDKit          3D

 75 79  0  0  0  0  0  0  0  0999 V2000
   -6.3068    1.1460    4.0958 C   0  0  0  0  0  0  0  0  0  0  0  0
   -6.2077    1.9363    2.9194 O   0  0  0  0  0  0  0  0  0  0  0  0
   -6.3438    1.1342    1.7411 C   0  0  0  0  0  0  0  0  0  0  0  0
   -6.2798    1.9892    0.4854 C   0  0  0  0  0  0  0  0  0  0  0  0
   -6.5314    1.2124   -0.7950 C   0  0  0  0  0  0  0  0  0  0  0  0
   -5.4713    0.2444   -1.0658 N   0  0  0  0  0  0  0  0  0  0  0  0
   -4.2293    0.7573   -1.6335 C   0  0  0  0  0  0  0  0  0  0  0  0
   -5.6789   -1.0854   -0.7027 C   0  0  0  0  0  0  0  0  0  0  0  0
   -6.7503   -1.5221   -0.2878 O   0  0  0  0  0  0  0  0  0  0  0  0
   -4.5522   -2.0367   -0.7952 C   0  0  0  0  0  0  0  0  0  0  0  0
   -4.6722   -3.1456   -1.6350 C   0  0  0  0  0  0  0  0  0  0  0  0
   -3.6162   -4.0526   -1.7364 C   0  0  0  0  0  0  0  0  0  0  0  0
   -2.4453   -3.8657   -0.9858 C   0  0  0  0  0  0  0  0  0  0  0  0
   -1.2856   -4.8217   -1.1318 C   0  0  0  0  0  0  0  0  0  0  0  0
   -0.3648   -4.4781   -2.3039 C   0  0  0  0  0  0  0  0  0  0  0  0
    0.4217   -3.2839   -2.0820 N   0  0  0  0  0  0  0  0  0  0  0  0
    1.5529   -3.1550   -1.3297 C   0  0  0  0  0  0  0  0  0  0  0  0
    1.8888   -1.8251   -1.4622 C   0  0  0  0  0  0  0  0  0  0  0  0
    3.0070   -1.1337   -0.8564 C   0  0  0  0  0  0  0  0  0  0  0  0
    3.9486   -1.7715   -0.0484 C   0  0  0  0  0  0  0  0  0  0  0  0
    5.0024   -1.0394    0.5052 C   0  0  0  0  0  0  0  0  0  0  0  0
    5.1065    0.3250    0.2406 C   0  0  0  0  0  0  0  0  0  0  0  0
    6.1810    1.1672    0.7951 C   0  0  0  0  0  0  0  0  0  0  0  0
    5.8657    2.4220    1.3538 C   0  0  0  0  0  0  0  0  0  0  0  0
    6.8400    3.2482    1.9284 C   0  0  0  0  0  0  0  0  0  0  0  0
    6.3637    4.4264    2.4340 O   0  0  0  0  0  0  0  0  0  0  0  0
    7.3168    5.3199    2.9949 C   0  0  0  0  0  0  0  0  0  0  0  0
    8.1665    2.8242    1.9534 C   0  0  0  0  0  0  0  0  0  0  0  0
    8.5133    1.5941    1.3935 C   0  0  0  0  0  0  0  0  0  0  0  0
    7.5349    0.7890    0.8013 C   0  0  0  0  0  0  0  0  0  0  0  0
    7.9483   -0.4057    0.2626 O   0  0  0  0  0  0  0  0  0  0  0  0
    8.2920   -0.2223   -1.1135 C   0  0  0  0  0  0  0  0  0  0  0  0
    4.1967    0.9659   -0.5348 N   0  0  0  0  0  0  0  0  0  0  0  0
    3.1838    0.2306   -1.0617 C   0  0  0  0  0  0  0  0  0  0  0  0
    0.9739   -1.2159   -2.2843 N   0  0  0  0  0  0  0  0  0  0  0  0
    0.0868   -2.1235   -2.6677 N   0  0  0  0  0  0  0  0  0  0  0  0
   -2.3512   -2.7639   -0.1220 C   0  0  0  0  0  0  0  0  0  0  0  0
   -3.4042   -1.8544   -0.0196 C   0  0  0  0  0  0  0  0  0  0  0  0
   -6.8369    3.4031    0.5454 C   0  0  0  0  0  0  0  0  0  0  0  0
   -5.3534    3.1937    0.4431 C   0  0  0  0  0  0  0  0  0  0  0  0
   -6.1912    1.8027    4.9622 H   0  0  0  0  0  0  0  0  0  0  0  0
   -7.2871    0.6632    4.1525 H   0  0  0  0  0  0  0  0  0  0  0  0
   -5.5132    0.3929    4.1204 H   0  0  0  0  0  0  0  0  0  0  0  0
   -5.5321    0.3991    1.7290 H   0  0  0  0  0  0  0  0  0  0  0  0
   -7.3059    0.6097    1.7744 H   0  0  0  0  0  0  0  0  0  0  0  0
   -7.4989    0.7034   -0.7164 H   0  0  0  0  0  0  0  0  0  0  0  0
   -6.6064    1.8805   -1.6618 H   0  0  0  0  0  0  0  0  0  0  0  0
   -3.6154    1.1683   -0.8276 H   0  0  0  0  0  0  0  0  0  0  0  0
   -3.6713   -0.0262   -2.1512 H   0  0  0  0  0  0  0  0  0  0  0  0
   -4.4559    1.5431   -2.3600 H   0  0  0  0  0  0  0  0  0  0  0  0
   -5.5814   -3.2962   -2.2119 H   0  0  0  0  0  0  0  0  0  0  0  0
   -3.7150   -4.9034   -2.4070 H   0  0  0  0  0  0  0  0  0  0  0  0
   -0.7193   -4.8586   -0.1923 H   0  0  0  0  0  0  0  0  0  0  0  0
   -1.6857   -5.8334   -1.2771 H   0  0  0  0  0  0  0  0  0  0  0  0
   -0.9266   -4.3472   -3.2362 H   0  0  0  0  0  0  0  0  0  0  0  0
    0.3497   -5.2944   -2.4629 H   0  0  0  0  0  0  0  0  0  0  0  0
    1.9877   -3.9824   -0.7904 H   0  0  0  0  0  0  0  0  0  0  0  0
    3.8856   -2.8335    0.1672 H   0  0  0  0  0  0  0  0  0  0  0  0
    5.7288   -1.5357    1.1422 H   0  0  0  0  0  0  0  0  0  0  0  0
    4.8302    2.7621    1.3481 H   0  0  0  0  0  0  0  0  0  0  0  0
    6.7811    6.2137    3.3290 H   0  0  0  0  0  0  0  0  0  0  0  0
    8.0533    5.6330    2.2474 H   0  0  0  0  0  0  0  0  0  0  0  0
    7.8043    4.8775    3.8699 H   0  0  0  0  0  0  0  0  0  0  0  0
    8.9529    3.4240    2.3983 H   0  0  0  0  0  0  0  0  0  0  0  0
    9.5481    1.2630    1.4130 H   0  0  0  0  0  0  0  0  0  0  0  0
    9.1492    0.4517   -1.2182 H   0  0  0  0  0  0  0  0  0  0  0  0
    7.4417    0.1500   -1.6952 H   0  0  0  0  0  0  0  0  0  0  0  0
    8.5771   -1.1978   -1.5184 H   0  0  0  0  0  0  0  0  0  0  0  0
    2.4931    0.8033   -1.6772 H   0  0  0  0  0  0  0  0  0  0  0  0
   -1.4523   -2.5969    0.4680 H   0  0  0  0  0  0  0  0  0  0  0  0
   -3.3246   -1.0071    0.6563 H   0  0  0  0  0  0  0  0  0  0  0  0
   -7.2309    3.7706    1.4873 H   0  0  0  0  0  0  0  0  0  0  0  0
   -7.3542    3.8010   -0.3203 H   0  0  0  0  0  0  0  0  0  0  0  0
   -4.7509    3.4120    1.3185 H   0  0  0  0  0  0  0  0  0  0  0  0
   -4.8746    3.4611   -0.4913 H   0  0  0  0  0  0  0  0  0  0  0  0
  1  2  1  0
  2  3  1  0
  3  4  1  0
  4  5  1  0
  5  6  1  0
  6  7  1  0
  6  8  1  0
  8  9  2  0
  8 10  1  0
 10 11  1  0
 11 12  2  0
 12 13  1  0
 13 14  1  0
 14 15  1  0
 15 16  1  0
 16 17  1  0
 17 18  2  0
 18 19  1  0
 19 20  2  0
 20 21  1  0
 21 22  2  0
 22 23  1  0
 23 24  1  0
 24 25  2  0
 25 26  1  0
 26 27  1  0
 25 28  1  0
 28 29  2  0
 29 30  1  0
 30 31  1  0
 31 32  1  0
 22 33  1  0
 33 34  2  0
 18 35  1  0
 35 36  2  0
 13 37  2  0
 37 38  1  0
  4 39  1  0
 39 40  1  0
 40  4  1  0
 38 10  2  0
 36 16  1  0
 34 19  1  0
 30 23  2  0
  1 41  1  0
  1 42  1  0
  1 43  1  0
  3 44  1  0
  3 45  1  0
  5 46  1  0
  5 47  1  0
  7 48  1  0
  7 49  1  0
  7 50  1  0
 11 51  1  0
 12 52  1  0
 14 53  1  0
 14 54  1  0
 15 55  1  0
 15 56  1  0
 17 57  1  0
 20 58  1  0
 21 59  1  0
 24 60  1  0
 27 61  1  0
 27 62  1  0
 27 63  1  0
 28 64  1  0
 29 65  1  0
 32 66  1  0
 32 67  1  0
 32 68  1  0
 34 69  1  0
 37 70  1  0
 38 71  1  0
 39 72  1  0
 39 73  1  0
 40 74  1  0
 40 75  1  0
M  END
$$$$
