5V3Y_LIGAND_5V8
     RDKit          3D

 28 31  0  0  0  0  0  0  0  0999 V2000
    2.1320   28.5690    8.2460 C   0  0  0  0  0  0  0  0  0  0  0  0
    1.3190   27.7260    8.9920 C   0  0  0  0  0  0  0  0  0  0  0  0
    1.6010   26.3780    9.0730 C   0  0  0  0  0  0  0  0  0  0  0  0
    2.6960   25.8460    8.4110 C   0  0  0  0  0  0  0  0  0  0  0  0
    4.8290   20.7960    7.2780 C   0  0  0  0  0  0  0  0  0  0  0  0
    6.2020   20.7290    7.0390 C   0  0  0  0  0  0  0  0  0  0  0  0
    4.5870   25.7740    7.1130 C   0  0  0  0  0  0  0  0  0  0  0  0
    5.7060   26.1480    6.2300 C   0  0  0  0  0  0  0  0  0  0  0  0
    6.9690   25.7640    4.1860 C   0  0  0  0  0  0  0  0  0  0  0  0
    3.5370   26.6850    7.6540 C   0  0  0  0  0  0  0  0  0  0  0  0
    6.1900   30.2400    6.8230 C   0  0  0  0  0  0  0  0  0  0  0  0
    7.3880   30.7100    7.6520 C   0  0  0  0  0  0  0  0  0  0  0  0
    6.8680   31.6760    8.7250 C   0  0  0  0  0  0  0  0  0  0  0  0
    1.8300   29.9030    8.1850 O   0  0  0  0  0  0  0  0  0  0  0  0
    4.2730   24.4990    7.5810 C   0  0  0  0  0  0  0  0  0  0  0  0
    4.9640   23.2060    7.3730 C   0  0  0  0  0  0  0  0  0  0  0  0
    4.2120   22.0200    7.4490 C   0  0  0  0  0  0  0  0  0  0  0  0
    6.9580   21.8950    6.9720 C   0  0  0  0  0  0  0  0  0  0  0  0
    6.3440   23.1210    7.1420 C   0  0  0  0  0  0  0  0  0  0  0  0
    3.2440   28.0640    7.5780 C   0  0  0  0  0  0  0  0  0  0  0  0
    4.1070   29.0360    6.8090 C   0  0  0  0  0  0  0  0  0  0  0  0
    3.1700   24.5850    8.3330 O   0  0  0  0  0  0  0  0  0  0  0  0
    6.8030   19.5220    6.8750 O   0  0  0  0  0  0  0  0  0  0  0  0
    5.8690   25.4400    5.0990 N   0  0  0  0  0  0  0  0  0  0  0  0
    6.4450   27.0900    6.4770 O   0  0  0  0  0  0  0  0  0  0  0  0
    5.2590   29.4620    7.6630 N   0  0  0  0  0  0  0  0  0  0  0  0
    5.9730   30.8710    9.6690 C   0  0  0  0  0  0  0  0  0  0  0  0
    4.8290   30.2450    8.8470 C   0  0  0  0  0  0  0  0  0  0  0  0
  2  1  1  0
  3  2  2  0
  4  3  1  0
  6  5  1  0
  8  7  1  0
 10  7  1  0
 10  4  2  0
 12 11  1  0
 13 12  1  0
 14  1  1  0
 15  7  2  0
 16 15  1  0
 17  5  2  0
 17 16  1  0
 18  6  2  0
 19 16  2  0
 19 18  1  0
 20 10  1  0
 20  1  2  0
 21 20  1  0
 22 15  1  0
 22  4  1  0
 23  6  1  0
 24  9  1  0
 24  8  1  0
 25  8  2  0
 26 21  1  0
 26 11  1  0
 27 13  1  0
 28 26  1  0
 28 27  1  0
M  END
$$$$
