8TQV_LIGAND_JS9
     RDKit          3D

 40 44  0  0  0  0  0  0  0  0999 V2000
   -6.1570  -14.9120   18.9040 C   0  0  0  0  0  0  0  0  0  0  0  0
   -4.5190  -15.0190   16.6470 C   0  0  0  0  0  0  0  0  0  0  0  0
   -2.8110  -16.3290   15.2280 C   0  0  0  0  0  0  0  0  0  0  0  0
   -2.5690  -16.4060   12.7750 C   0  0  0  0  0  0  0  0  0  0  0  0
   -1.6610  -16.3790   10.3310 C   0  0  0  0  0  0  0  0  0  0  0  0
   -0.5100  -16.4450    9.5420 C   0  0  0  0  0  0  0  0  0  0  0  0
   -1.9440  -16.4560    7.6090 C   0  0  0  0  0  0  0  0  0  0  0  0
   -2.9140  -16.3310    9.7140 C   0  0  0  0  0  0  0  0  0  0  0  0
   -1.3760  -17.2450    5.1880 C   0  0  0  0  0  0  0  0  0  0  0  0
   -4.3570  -11.3920   20.3650 C   0  0  0  0  0  0  0  0  0  0  0  0
   -5.6370  -11.4830   19.7700 O   0  0  0  0  0  0  0  0  0  0  0  0
   -6.7320  -11.3040   20.6510 C   0  0  0  0  0  0  0  0  0  0  0  0
   -8.0260  -11.4350   19.7990 C   0  0  1  0  0  0  0  0  0  0  0  0
   -8.3740  -12.8000   19.1260 C   0  0  0  0  0  0  0  0  0  0  0  0
   -8.2060  -13.8500   20.1610 N   0  0  0  0  0  0  0  0  0  0  0  0
   -9.1210  -13.8430   21.3110 C   0  0  0  0  0  0  0  0  0  0  0  0
   -7.1280  -14.8630   20.1040 C   0  0  0  0  0  0  0  0  0  0  0  0
   -7.0450  -15.6570   20.9780 O   0  0  0  0  0  0  0  0  0  0  0  0
   -4.7700  -14.7900   19.0500 C   0  0  0  0  0  0  0  0  0  0  0  0
   -3.9490  -14.8390   17.9180 C   0  0  0  0  0  0  0  0  0  0  0  0
   -3.6390  -15.0520   15.3820 C   0  0  0  0  0  0  0  0  0  0  0  0
   -2.0540  -16.2540   13.9790 N   0  0  0  0  0  0  0  0  0  0  0  0
   -1.5320  -16.3090   11.8580 C   0  0  0  0  0  0  0  0  0  0  0  0
   -0.4080  -16.0650   12.5330 N   0  0  0  0  0  0  0  0  0  0  0  0
   -0.7180  -16.0410   13.8670 N   0  0  0  0  0  0  0  0  0  0  0  0
   -0.6590  -16.4760    8.1560 C   0  0  0  0  0  0  0  0  0  0  0  0
   -3.0240  -16.3700    8.3870 N   0  0  0  0  0  0  0  0  0  0  0  0
   -2.1210  -16.4490    6.0760 C   0  0  0  0  0  0  0  0  0  0  0  0
   -0.4160  -18.1570    5.7030 O   0  0  0  0  0  0  0  0  0  0  0  0
    0.2130  -19.0530    4.8050 C   0  0  0  0  0  0  0  0  0  0  0  0
   -1.6160  -17.1160    3.8040 C   0  0  0  0  0  0  0  0  0  0  0  0
   -2.5680  -16.2060    3.3210 C   0  0  0  0  0  0  0  0  0  0  0  0
   -3.2980  -15.4090    4.2090 C   0  0  0  0  0  0  0  0  0  0  0  0
   -4.2520  -14.4860    3.7150 O   0  0  0  0  0  0  0  0  0  0  0  0
   -5.4500  -14.3240    4.4570 C   0  0  0  0  0  0  0  0  0  0  0  0
   -3.0580  -15.5310    5.5830 C   0  0  0  0  0  0  0  0  0  0  0  0
   -5.9020  -15.1440   16.5060 C   0  0  0  0  0  0  0  0  0  0  0  0
   -6.7160  -15.0980   17.6340 C   0  0  0  0  0  0  0  0  0  0  0  0
   -9.2450  -10.6550   20.3070 C   0  0  0  0  0  0  0  0  0  0  0  0
   -8.4790  -10.1640   19.0710 C   0  0  0  0  0  0  0  0  0  0  0  0
  6  5  1  0
  8  5  2  0
 11 10  1  0
 12 11  1  0
 13 12  1  1
 14 13  1  0
 15 14  1  0
 16 15  1  0
 17 15  1  0
 17  1  1  0
 18 17  2  0
 19  1  1  0
 20 19  2  0
 20  2  1  0
 21  3  1  0
 21  2  1  0
 22  4  1  0
 22  3  1  0
 23  5  1  0
 23  4  2  0
 24 23  1  0
 25 24  2  0
 25 22  1  0
 26  7  1  0
 26  6  2  0
 27  7  2  0
 27  8  1  0
 28  9  2  0
 28  7  1  0
 29  9  1  0
 30 29  1  0
 31  9  1  0
 32 31  2  0
 33 32  1  0
 34 33  1  0
 35 34  1  0
 36 28  1  0
 36 33  2  0
 37  2  2  0
 38 37  1  0
 38  1  2  0
 39 13  1  0
 40 13  1  0
 40 39  1  0
M  END
$$$$
